/*--------------------------------*- C++ -*----------------------------------*\
| =========                 |                                                 |
| \\      /  F ield         | OpenFOAM: The Open Source CFD Toolbox           |
|  \\    /   O peration     | Version:  4.1                                   |
|   \\  /    A nd           | Web:      www.OpenFOAM.org                      |
|    \\/     M anipulation  |                                                 |
\*---------------------------------------------------------------------------*/
FoamFile
{
    version     2.0;
    format      ascii;
    class       polyBoundaryMesh;
    location    "constant/polyMesh";
    object      boundary;
}
// * * * * * * * * * * * * * * * * * * * * * * * * * * * * * * * * * * * * * //

6
(
    inlet
    {
        type            patch;
        nFaces          0;
        startFace       2412;
    }
    outlet
    {
        type            patch;
        nFaces          11;
        startFace       2412;
    }
    walls
    {
        type            wall;
        inGroups        1(wall);
        nFaces          127;
        startFace       2423;
    }
    symwall
    {
        type            empty;
        inGroups        1(empty);
        nFaces          2550;
        startFace       2550;
    }
    procBoundary3to1
    {
        type            processor;
        inGroups        1(processor);
        nFaces          128;
        startFace       5100;
        matchTolerance  0.0001;
        transform       unknown;
        myProcNo        3;
        neighbProcNo    1;
    }
    procBoundary3to2
    {
        type            processor;
        inGroups        1(processor);
        nFaces          10;
        startFace       5228;
        matchTolerance  0.0001;
        transform       unknown;
        myProcNo        3;
        neighbProcNo    2;
    }
)

// ************************************************************************* //
