/*--------------------------------*- C++ -*----------------------------------*\
| =========                 |                                                 |
| \\      /  F ield         | OpenFOAM: The Open Source CFD Toolbox           |
|  \\    /   O peration     | Version:  4.1                                   |
|   \\  /    A nd           | Web:      www.OpenFOAM.org                      |
|    \\/     M anipulation  |                                                 |
\*---------------------------------------------------------------------------*/
FoamFile
{
    version     2.0;
    format      ascii;
    class       polyBoundaryMesh;
    location    "constant/polyMesh";
    object      boundary;
}
// * * * * * * * * * * * * * * * * * * * * * * * * * * * * * * * * * * * * * //

6
(
    inlet
    {
        type            patch;
        nFaces          1;
        startFace       2407;
    }
    outlet
    {
        type            patch;
        nFaces          0;
        startFace       2408;
    }
    walls
    {
        type            wall;
        inGroups        1(wall);
        nFaces          142;
        startFace       2408;
    }
    symwall
    {
        type            empty;
        inGroups        1(empty);
        nFaces          2550;
        startFace       2550;
    }
    procBoundary0to1
    {
        type            processor;
        inGroups        1(processor);
        nFaces          10;
        startFace       5100;
        matchTolerance  0.0001;
        transform       unknown;
        myProcNo        0;
        neighbProcNo    1;
    }
    procBoundary0to2
    {
        type            processor;
        inGroups        1(processor);
        nFaces          133;
        startFace       5110;
        matchTolerance  0.0001;
        transform       unknown;
        myProcNo        0;
        neighbProcNo    2;
    }
)

// ************************************************************************* //
