/*--------------------------------*- C++ -*----------------------------------*\
| =========                 |                                                 |
| \\      /  F ield         | OpenFOAM: The Open Source CFD Toolbox           |
|  \\    /   O peration     | Version:  4.1                                   |
|   \\  /    A nd           | Web:      www.OpenFOAM.org                      |
|    \\/     M anipulation  |                                                 |
\*---------------------------------------------------------------------------*/
FoamFile
{
    version     2.0;
    format      ascii;
    class       polyBoundaryMesh;
    location    "constant/polyMesh";
    object      boundary;
}
// * * * * * * * * * * * * * * * * * * * * * * * * * * * * * * * * * * * * * //

7
(
    inlet
    {
        type            patch;
        nFaces          0;
        startFace       2412;
    }
    outlet
    {
        type            patch;
        nFaces          9;
        startFace       2412;
    }
    walls
    {
        type            wall;
        inGroups        1(wall);
        nFaces          128;
        startFace       2421;
    }
    symwall
    {
        type            empty;
        inGroups        1(empty);
        nFaces          2550;
        startFace       2549;
    }
    procBoundary1to0
    {
        type            processor;
        inGroups        1(processor);
        nFaces          10;
        startFace       5099;
        matchTolerance  0.0001;
        transform       unknown;
        myProcNo        1;
        neighbProcNo    0;
    }
    procBoundary1to2
    {
        type            processor;
        inGroups        1(processor);
        nFaces          1;
        startFace       5109;
        matchTolerance  0.0001;
        transform       unknown;
        myProcNo        1;
        neighbProcNo    2;
    }
    procBoundary1to3
    {
        type            processor;
        inGroups        1(processor);
        nFaces          128;
        startFace       5110;
        matchTolerance  0.0001;
        transform       unknown;
        myProcNo        1;
        neighbProcNo    3;
    }
)

// ************************************************************************* //
